REMARK  Name = Mazindol (EXAMPLE)
REMARK  2 active torsions:
REMARK  status: ('A' for Active; 'I' for Inactive)
REMARK    1  A    between atoms: O_1  and  C_2
REMARK    2  A    between atoms: C_2  and  C_3
REMARK                            x       y       z     vdW  Elec       q    Type
REMARK                         _______ _______ _______ _____ _____    ______ ____
ROOT
ATOM      1  C   UNL     1      -0.847  -3.547   2.774  0.00  0.00    +0.000 C 
ATOM      2  C   UNL     1      -1.072  -3.809   1.277  0.00  0.00    +0.000 A 
ATOM      3  C   UNL     1      -1.899  -4.714   0.629  0.00  0.00    +0.000 A 
ATOM      4  C   UNL     1      -2.165  -4.527  -0.737  0.00  0.00    +0.000 A 
ATOM      5  C   UNL     1      -1.572  -3.471  -1.460  0.00  0.00    +0.000 A 
ATOM      6  C   UNL     1      -0.819  -2.502  -0.805  0.00  0.00    +0.000 A 
ATOM      7  C   UNL     1      -0.690  -2.665   0.554  0.00  0.00    +0.000 A 
ATOM      8  C   UNL     1      -0.791  -1.615   1.552  0.00  0.00    +0.000 C 
ATOM      9  N   UNL     1      -0.570  -0.340   1.446  0.00  0.00    +0.000 NA
ATOM     10  C   UNL     1      -1.017   0.127   2.802  0.00  0.00    +0.000 C 
ATOM     11  C   UNL     1      -1.056  -1.126   3.736  0.00  0.00    +0.000 C 
ATOM     12  N   UNL     1      -1.207  -2.149   2.749  0.00  0.00    +0.000 N 
ENDROOT
BRANCH   1  13
ATOM     13  C   UNL     1      -1.516  -4.531   3.706  0.00  0.00    +0.000 A 
ATOM     14  C   UNL     1      -2.588  -4.228   4.558  0.00  0.00    +0.000 A 
ATOM     15  C   UNL     1      -3.095  -5.213   5.420  0.00  0.00    +0.000 A 
ATOM     16  C   UNL     1      -2.557  -6.488   5.440  0.00  0.00    +0.000 A 
ATOM     17 CL   UNL     1      -3.179  -7.683   6.520  0.00  0.00    +0.000 Cl
ATOM     18  C   UNL     1      -1.502  -6.832   4.595  0.00  0.00    +0.000 A 
ATOM     19  C   UNL     1      -0.996  -5.854   3.746  0.00  0.00    +0.000 A 
ENDBRANCH   1  13
BRANCH   1  20
ATOM     20  O   UNL     1       0.538  -3.631   3.113  0.00  0.00    +0.000 OA
ATOM     21  H   UNL     1       1.021  -3.182   2.415  0.00  0.00    +0.000 HD
ENDBRANCH   1  20
TORSDOF 2

